Circuit: * Z:\Gonzalo\Bici\throttle-fix\throttle-fix.asc

Instance "m:u1:14": Length shorter than recommended for a level 1 MOSFET.
Instance "m:u1:12": Length shorter than recommended for a level 1 MOSFET.
Direct Newton iteration failed to find .op point.  (Use ".option noopiter" to skip.)
Starting Gmin stepping
Increasing initial diagonal Gmin to 100
Increasing initial diagonal Gmin to 1000
Increasing initial diagonal Gmin to 10000
Increasing initial diagonal Gmin to 100000
Increasing initial diagonal Gmin to 1e+006
Initial Gmin=1e+006 failed
Gmin stepping failed

Starting source stepping with srcstepmethod=0
Source Step = 3.0303%
Source Step = 12.1212%
Source Step = 19.697%
Source Step = 27.2727%
Source Step = 34.8485%
Source Step = 42.4242%
vernier = 0.375
Source Step = 52.6515%
Source Step = 64.0152%
Source Step = 72.0407%
vernier = 0.00585938
Starting source stepping with srcstepmethod=1
Source Step = 3.0303%
vernier = 0.25
Source stepping failed

Pseudo Transient failed in finding the operating point at 5.51014 ms.
Trouble finding operating point....skipping operating point for Transient analysis.
Changing Tseed to 1.07422e-009
Changing Tseed to 1.07422e-011
Changing Tseed to 1.07422e-008
Changing Tseed to 1.07422e-012
Changing Tseed to 1.07422e-007
Changing Tseed to 1.07422e-013
Changing Tseed to 1.07422e-006
Changing Tseed to 1.07422e-014
to 2.14844e-014

Date: Fri Dec 03 02:06:22 2021
Total elapsed time: 0.405 seconds.

tnom = 27
temp = 27
method = modified trap
totiter = 20454
traniter = 3451
tranpoints = 1398
accept = 1309
rejected = 425
matrix size = 51
fillins = 51
solver = Normal
Thread vector: 5.4/4.1[2] 1.5/1.9[1] 3.0/3.4[1] 0.1/1.3[1]  2592/500
Matrix Compiler1: 3.94 KB object code size  0.7/0.3/[0.2]
Matrix Compiler2: 4.46 KB object code size  0.3/0.6/[0.2]

